<?xml version="1.0" encoding="UTF-8"?>

<!-- generated on 2022-11-14 14:39:28 by Eclipse SUMO netedit Version 1.12.0
<configuration xmlns:xsi="http://www.w3.org/2001/XMLSchema-instance" xsi:noNamespaceSchemaLocation="http://sumo.dlr.de/xsd/netconvertConfiguration.xsd">

    <input>
        <sumo-net-file value="C:\Users\HanaMeel\anaconda3\Untitled%20Folder\2022_11_12\Kiserlet\teszt_sacramento1.net.xml"/>
    </input>

    <output>
        <output-file value="C:\Users\HanaMeel\anaconda3\Untitled%20Folder\2022_11_12\Kiserlet\teszt_sacramento2.net.xml"/>
        <output.street-names value="true"/>
    </output>

    <processing>
        <geometry.min-radius.fix.railways value="false"/>
        <geometry.max-grade.fix value="false"/>
        <offset.disable-normalization value="true"/>
        <lefthand value="false"/>
    </processing>

    <junctions>
        <no-turnarounds value="true"/>
        <junctions.corner-detail value="5"/>
        <junctions.limit-turn-speed value="5.5"/>
        <rectangular-lane-cut value="false"/>
    </junctions>

    <pedestrian>
        <walkingareas value="false"/>
    </pedestrian>

    <report>
        <aggregate-warnings value="5"/>
    </report>

</configuration>
-->

<net version="1.9" junctionCornerDetail="5" limitTurnSpeed="5.50" xmlns:xsi="http://www.w3.org/2001/XMLSchema-instance" xsi:noNamespaceSchemaLocation="http://sumo.dlr.de/xsd/net_file.xsd">

    <location netOffset="-621301.55,-4293342.77" convBoundary="5245.13,-10960.84,6028.00,-6634.51" origBoundary="-121.604455,38.779155,-121.526614,38.866718" projParameter="+proj=utm +zone=10 +ellps=WGS84 +datum=WGS84 +units=m +no_defs"/>

    <type id="highway.bridleway" priority="1" numLanes="1" speed="2.78" allow="pedestrian" oneway="1" width="2.00"/>
    <type id="highway.bus_guideway" priority="1" numLanes="1" speed="27.78" allow="bus" oneway="1"/>
    <type id="highway.cycleway" priority="1" numLanes="1" speed="8.33" allow="bicycle" oneway="0" width="1.00"/>
    <type id="highway.footway" priority="1" numLanes="1" speed="2.78" allow="pedestrian" oneway="1" width="2.00"/>
    <type id="highway.ford" priority="1" numLanes="1" speed="2.78" allow="army" oneway="0"/>
    <type id="highway.living_street" priority="2" numLanes="1" speed="2.78" disallow="tram rail_urban rail rail_electric rail_fast ship" oneway="0"/>
    <type id="highway.motorway" priority="14" numLanes="2" speed="39.44" allow="private emergency authority army vip passenger hov taxi bus coach delivery truck trailer motorcycle evehicle custom1 custom2" oneway="1"/>
    <type id="highway.motorway_link" priority="9" numLanes="1" speed="22.22" allow="private emergency authority army vip passenger hov taxi bus coach delivery truck trailer motorcycle evehicle custom1 custom2" oneway="1"/>
    <type id="highway.path" priority="1" numLanes="1" speed="2.78" allow="pedestrian bicycle" oneway="0" width="2.00"/>
    <type id="highway.pedestrian" priority="1" numLanes="1" speed="2.78" allow="pedestrian" oneway="1" width="2.00"/>
    <type id="highway.primary" priority="12" numLanes="2" speed="27.78" disallow="tram rail_urban rail rail_electric rail_fast ship" oneway="0"/>
    <type id="highway.primary_link" priority="7" numLanes="1" speed="22.22" disallow="tram rail_urban rail rail_electric rail_fast ship" oneway="0"/>
    <type id="highway.raceway" priority="15" numLanes="2" speed="83.33" allow="vip" oneway="0"/>
    <type id="highway.residential" priority="3" numLanes="1" speed="13.89" disallow="tram rail_urban rail rail_electric rail_fast ship" oneway="0"/>
    <type id="highway.secondary" priority="11" numLanes="1" speed="27.78" disallow="tram rail_urban rail rail_electric rail_fast ship" oneway="0"/>
    <type id="highway.secondary_link" priority="6" numLanes="1" speed="22.22" disallow="tram rail_urban rail rail_electric rail_fast ship" oneway="0"/>
    <type id="highway.service" priority="1" numLanes="1" speed="5.56" allow="pedestrian delivery bicycle" oneway="0"/>
    <type id="highway.stairs" priority="1" numLanes="1" speed="1.39" allow="pedestrian" oneway="1" width="2.00"/>
    <type id="highway.step" priority="1" numLanes="1" speed="1.39" allow="pedestrian" oneway="1" width="2.00"/>
    <type id="highway.steps" priority="1" numLanes="1" speed="1.39" allow="pedestrian" oneway="1" width="2.00"/>
    <type id="highway.tertiary" priority="10" numLanes="1" speed="22.22" disallow="tram rail_urban rail rail_electric rail_fast ship" oneway="0"/>
    <type id="highway.tertiary_link" priority="5" numLanes="1" speed="22.22" disallow="tram rail_urban rail rail_electric rail_fast ship" oneway="0"/>
    <type id="highway.track" priority="1" numLanes="1" speed="5.56" allow="pedestrian motorcycle moped bicycle" oneway="0"/>
    <type id="highway.trunk" priority="13" numLanes="2" speed="27.78" disallow="pedestrian bicycle tram rail_urban rail rail_electric rail_fast ship" oneway="0"/>
    <type id="highway.trunk_link" priority="8" numLanes="1" speed="22.22" disallow="pedestrian bicycle tram rail_urban rail rail_electric rail_fast ship" oneway="0"/>
    <type id="highway.unclassified" priority="4" numLanes="1" speed="13.89" disallow="tram rail_urban rail rail_electric rail_fast ship" oneway="0"/>
    <type id="highway.unsurfaced" priority="1" numLanes="1" speed="8.33" disallow="tram rail_urban rail rail_electric rail_fast ship" oneway="0"/>
    <type id="railway.highspeed" priority="21" numLanes="1" speed="69.44" allow="rail_fast" oneway="1"/>
    <type id="railway.light_rail" priority="19" numLanes="1" speed="27.78" allow="rail_urban" oneway="1"/>
    <type id="railway.preserved" priority="16" numLanes="1" speed="27.78" allow="rail" oneway="1"/>
    <type id="railway.rail" priority="20" numLanes="1" speed="44.44" allow="rail" oneway="1"/>
    <type id="railway.subway" priority="18" numLanes="1" speed="27.78" allow="rail_urban" oneway="1"/>
    <type id="railway.tram" priority="17" numLanes="1" speed="13.89" allow="tram" oneway="1"/>

    <edge id=":183589003-AddedOnRampNode_0" function="internal">
        <lane id=":183589003-AddedOnRampNode_0_0" index="0" allow="private emergency authority army vip passenger hov taxi bus coach delivery truck trailer motorcycle evehicle custom1 custom2" speed="29.06" length="8.00" shape="5680.77,-10313.45 5680.63,-10305.45"/>
        <lane id=":183589003-AddedOnRampNode_0_1" index="1" allow="private emergency authority army vip passenger hov taxi bus coach delivery truck trailer motorcycle evehicle custom1 custom2" speed="29.06" length="8.00" shape="5677.57,-10313.50 5677.43,-10305.50"/>
    </edge>
    <edge id=":25304556-AddedOnRampNode_0" function="internal">
        <lane id=":25304556-AddedOnRampNode_0_0" index="0" allow="private emergency authority army vip passenger hov taxi bus coach delivery truck trailer motorcycle evehicle custom1 custom2" speed="29.06" length="8.00" shape="5672.53,-9902.09 5672.30,-9894.09"/>
        <lane id=":25304556-AddedOnRampNode_0_1" index="1" allow="private emergency authority army vip passenger hov taxi bus coach delivery truck trailer motorcycle evehicle custom1 custom2" speed="29.06" length="8.00" shape="5669.33,-9902.18 5669.11,-9894.18"/>
    </edge>
    <edge id=":2616874490_0" function="internal">
        <lane id=":2616874490_0_0" index="0" disallow="tram rail_urban rail rail_electric rail_fast ship" speed="26.19" length="20.78" shape="5809.48,-7250.84 5788.70,-7250.95"/>
        <lane id=":2616874490_0_1" index="1" disallow="tram rail_urban rail rail_electric rail_fast ship" speed="26.19" length="20.78" shape="5809.50,-7254.04 5788.72,-7254.15"/>
    </edge>
    <edge id=":2616874490_2" function="internal">
        <lane id=":2616874490_2_0" index="0" allow="private emergency authority army vip passenger hov taxi bus coach delivery truck trailer motorcycle evehicle custom1 custom2" speed="7.31" length="11.69" shape="5803.99,-7266.03 5804.30,-7262.20 5805.33,-7259.45 5807.07,-7257.80 5809.52,-7257.24"/>
    </edge>
    <edge id=":2616874490_3" function="internal">
        <lane id=":2616874490_3_0" index="0" allow="private emergency authority army vip passenger hov taxi bus coach delivery truck trailer motorcycle evehicle custom1 custom2" speed="8.11" length="14.56" shape="5794.39,-7266.11 5794.00,-7260.87 5792.92,-7257.13 5791.16,-7254.88 5788.72,-7254.15"/>
    </edge>
    <edge id=":2616874490_4" function="internal">
        <lane id=":2616874490_4_0" index="0" disallow="tram rail_urban rail rail_electric rail_fast ship" speed="26.19" length="21.08" shape="5788.75,-7260.55 5795.51,-7260.01 5801.01,-7258.89 5805.57,-7257.76 5809.52,-7257.24"/>
    </edge>
    <edge id=":2616874501_0" function="internal">
        <lane id=":2616874501_0_0" index="0" disallow="tram rail_urban rail rail_electric rail_fast ship" speed="26.19" length="8.80" shape="5398.95,-7253.01 5396.49,-7253.52 5394.96,-7254.63 5393.43,-7255.74 5390.97,-7256.25"/>
    </edge>
    <edge id=":2616874501_1" function="internal">
        <lane id=":2616874501_1_0" index="0" disallow="tram rail_urban rail rail_electric rail_fast ship" speed="26.19" length="8.00" shape="5391.00,-7262.65 5399.01,-7262.61"/>
        <lane id=":2616874501_1_1" index="1" disallow="tram rail_urban rail rail_electric rail_fast ship" speed="26.19" length="8.00" shape="5390.99,-7259.45 5398.99,-7259.41"/>
    </edge>
    <edge id=":2616874502_0" function="internal">
        <lane id=":2616874502_0_0" index="0" disallow="tram rail_urban rail rail_electric rail_fast ship" speed="3.65" length="4.67" shape="5245.12,-7257.01 5243.93,-7257.82 5243.53,-7258.62 5243.93,-7259.42 5245.14,-7260.21"/>
    </edge>
    <edge id=":2616874508_0" function="internal">
        <lane id=":2616874508_0_0" index="0" allow="private emergency authority army vip passenger hov taxi bus coach delivery truck trailer motorcycle evehicle custom1 custom2" speed="29.06" length="7.28" shape="5629.04,-7911.76 5629.00,-7909.65 5629.01,-7908.21 5629.09,-7906.76 5629.27,-7904.66"/>
        <lane id=":2616874508_0_1" index="1" allow="private emergency authority army vip passenger hov taxi bus coach delivery truck trailer motorcycle evehicle custom1 custom2" speed="29.06" length="7.28" shape="5625.84,-7911.83 5625.80,-7909.62 5625.81,-7908.10 5625.90,-7906.59 5626.08,-7904.39"/>
    </edge>
    <edge id=":2616874515_0" function="internal">
        <lane id=":2616874515_0_0" index="0" disallow="tram rail_urban rail rail_electric rail_fast ship" speed="27.78" length="0.10" shape="5517.12,-7252.38 5517.12,-7252.38"/>
        <lane id=":2616874515_0_1" index="1" disallow="tram rail_urban rail rail_electric rail_fast ship" speed="27.78" length="0.10" shape="5517.14,-7255.58 5517.14,-7255.58"/>
    </edge>
    <edge id=":2616874515_2" function="internal">
        <lane id=":2616874515_2_0" index="0" disallow="tram rail_urban rail rail_electric rail_fast ship" speed="3.65" length="2.34" shape="5517.14,-7255.58 5515.95,-7256.39 5515.55,-7257.19"/>
    </edge>
    <edge id=":2616874515_6" function="internal">
        <lane id=":2616874515_6_0" index="0" disallow="tram rail_urban rail rail_electric rail_fast ship" speed="3.65" length="2.34" shape="5515.55,-7257.19 5515.95,-7257.99 5517.16,-7258.78"/>
    </edge>
    <edge id=":2616874515_3" function="internal">
        <lane id=":2616874515_3_0" index="0" disallow="tram rail_urban rail rail_electric rail_fast ship" speed="27.78" length="0.10" shape="5517.18,-7261.98 5517.18,-7261.98"/>
        <lane id=":2616874515_3_1" index="1" disallow="tram rail_urban rail rail_electric rail_fast ship" speed="27.78" length="0.10" shape="5517.16,-7258.78 5517.16,-7258.78"/>
    </edge>
    <edge id=":2616874515_5" function="internal">
        <lane id=":2616874515_5_0" index="0" disallow="tram rail_urban rail rail_electric rail_fast ship" speed="3.65" length="2.34" shape="5517.16,-7258.78 5518.35,-7257.97 5518.75,-7257.17"/>
    </edge>
    <edge id=":2616874515_7" function="internal">
        <lane id=":2616874515_7_0" index="0" disallow="tram rail_urban rail rail_electric rail_fast ship" speed="3.65" length="2.34" shape="5518.75,-7257.17 5518.35,-7256.37 5517.14,-7255.58"/>
    </edge>
    <edge id=":2828240845_0" function="internal">
        <lane id=":2828240845_0_0" index="0" disallow="tram rail_urban rail rail_electric rail_fast ship" speed="27.78" length="0.10" shape="5671.58,-7251.56 5671.57,-7251.56"/>
        <lane id=":2828240845_0_1" index="1" disallow="tram rail_urban rail rail_electric rail_fast ship" speed="27.78" length="0.10" shape="5671.59,-7254.76 5671.59,-7254.76"/>
    </edge>
    <edge id=":2828240845_2" function="internal">
        <lane id=":2828240845_2_0" index="0" disallow="tram rail_urban rail rail_electric rail_fast ship" speed="3.65" length="2.34" shape="5671.59,-7254.76 5670.40,-7255.57 5670.00,-7256.37"/>
    </edge>
    <edge id=":2828240845_6" function="internal">
        <lane id=":2828240845_6_0" index="0" disallow="tram rail_urban rail rail_electric rail_fast ship" speed="3.65" length="2.34" shape="5670.00,-7256.37 5670.40,-7257.17 5671.61,-7257.96"/>
    </edge>
    <edge id=":2828240845_3" function="internal">
        <lane id=":2828240845_3_0" index="0" disallow="tram rail_urban rail rail_electric rail_fast ship" speed="27.78" length="0.10" shape="5671.63,-7261.16 5671.62,-7261.16"/>
        <lane id=":2828240845_3_1" index="1" disallow="tram rail_urban rail rail_electric rail_fast ship" speed="27.78" length="0.10" shape="5671.61,-7257.96 5671.61,-7257.96"/>
    </edge>
    <edge id=":2828240845_5" function="internal">
        <lane id=":2828240845_5_0" index="0" disallow="tram rail_urban rail rail_electric rail_fast ship" speed="3.65" length="2.34" shape="5671.61,-7257.96 5672.80,-7257.15 5673.20,-7256.35"/>
    </edge>
    <edge id=":2828240845_7" function="internal">
        <lane id=":2828240845_7_0" index="0" disallow="tram rail_urban rail rail_electric rail_fast ship" speed="3.65" length="2.34" shape="5673.20,-7256.35 5672.80,-7255.55 5671.59,-7254.76"/>
    </edge>
    <edge id=":2828240852_0" function="internal">
        <lane id=":2828240852_0_0" index="0" disallow="tram rail_urban rail rail_electric rail_fast ship" speed="27.78" length="0.10" shape="5407.61,-7252.96 5407.61,-7252.96"/>
        <lane id=":2828240852_0_1" index="1" disallow="tram rail_urban rail rail_electric rail_fast ship" speed="27.78" length="0.10" shape="5407.63,-7256.16 5407.63,-7256.16"/>
    </edge>
    <edge id=":2828240852_2" function="internal">
        <lane id=":2828240852_2_0" index="0" disallow="tram rail_urban rail rail_electric rail_fast ship" speed="3.65" length="2.34" shape="5407.63,-7256.16 5406.44,-7256.97 5406.04,-7257.77"/>
    </edge>
    <edge id=":2828240852_6" function="internal">
        <lane id=":2828240852_6_0" index="0" disallow="tram rail_urban rail rail_electric rail_fast ship" speed="3.65" length="2.34" shape="5406.04,-7257.77 5406.44,-7258.57 5407.65,-7259.36"/>
    </edge>
    <edge id=":2828240852_3" function="internal">
        <lane id=":2828240852_3_0" index="0" disallow="tram rail_urban rail rail_electric rail_fast ship" speed="27.78" length="0.10" shape="5407.67,-7262.56 5407.67,-7262.56"/>
        <lane id=":2828240852_3_1" index="1" disallow="tram rail_urban rail rail_electric rail_fast ship" speed="27.78" length="0.10" shape="5407.65,-7259.36 5407.65,-7259.36"/>
    </edge>
    <edge id=":2828240852_5" function="internal">
        <lane id=":2828240852_5_0" index="0" disallow="tram rail_urban rail rail_electric rail_fast ship" speed="3.65" length="2.34" shape="5407.65,-7259.36 5408.84,-7258.55 5409.24,-7257.75"/>
    </edge>
    <edge id=":2828240852_7" function="internal">
        <lane id=":2828240852_7_0" index="0" disallow="tram rail_urban rail rail_electric rail_fast ship" speed="3.65" length="2.34" shape="5409.24,-7257.75 5408.84,-7256.95 5407.63,-7256.16"/>
    </edge>
    <edge id=":90250710_0" function="internal">
        <lane id=":90250710_0_0" index="0" disallow="tram rail_urban rail rail_electric rail_fast ship" speed="3.65" length="4.67" shape="5615.93,-10451.84 5614.74,-10452.66 5614.35,-10453.46 5614.76,-10454.25 5615.97,-10455.04"/>
    </edge>
    <edge id=":90250768_0" function="internal">
        <lane id=":90250768_0_0" index="0" disallow="tram rail_urban rail rail_electric rail_fast ship" speed="3.65" length="4.67" shape="5734.49,-10453.15 5735.67,-10452.33 5736.06,-10451.52 5735.65,-10450.73 5734.43,-10449.95"/>
    </edge>
    <edge id=":90250822_0" function="internal">
        <lane id=":90250822_0_0" index="0" disallow="tram rail_urban rail rail_electric rail_fast ship" speed="25.07" length="0.10" shape="5700.36,-10447.33 5700.36,-10447.33"/>
        <lane id=":90250822_0_1" index="1" disallow="tram rail_urban rail rail_electric rail_fast ship" speed="25.07" length="0.10" shape="5700.41,-10450.53 5700.41,-10450.53"/>
    </edge>
    <edge id=":90250822_2" function="internal">
        <lane id=":90250822_2_0" index="0" disallow="tram rail_urban rail rail_electric rail_fast ship" speed="25.07" length="0.10" shape="5700.52,-10456.93 5700.52,-10456.93"/>
        <lane id=":90250822_2_1" index="1" disallow="tram rail_urban rail rail_electric rail_fast ship" speed="25.07" length="0.10" shape="5700.47,-10453.73 5700.47,-10453.73"/>
    </edge>
    <edge id=":90250824_0" function="internal">
        <lane id=":90250824_0_0" index="0" allow="private emergency authority army vip passenger hov taxi bus coach delivery truck trailer motorcycle evehicle custom1 custom2" speed="29.06" length="8.00" shape="5682.53,-10413.43 5682.37,-10405.43"/>
        <lane id=":90250824_0_1" index="1" allow="private emergency authority army vip passenger hov taxi bus coach delivery truck trailer motorcycle evehicle custom1 custom2" speed="29.06" length="8.00" shape="5679.33,-10413.50 5679.17,-10405.49"/>
    </edge>
    <edge id=":90254351_0" function="internal">
        <lane id=":90254351_0_0" index="0" allow="private emergency authority army vip passenger hov taxi bus coach delivery truck trailer motorcycle evehicle custom1 custom2" speed="29.06" length="8.27" shape="5675.33,-10002.05 5675.79,-9999.57 5676.85,-9998.01 5677.92,-9996.44 5678.35,-9993.96"/>
        <lane id=":90254351_0_1" index="1" allow="private emergency authority army vip passenger hov taxi bus coach delivery truck trailer motorcycle evehicle custom1 custom2" speed="29.06" length="8.27" shape="5675.33,-10002.05 5675.15,-9994.05"/>
        <lane id=":90254351_0_2" index="2" allow="private emergency authority army vip passenger hov taxi bus coach delivery truck trailer motorcycle evehicle custom1 custom2" speed="29.06" length="8.27" shape="5672.13,-10002.11 5671.95,-9994.14"/>
    </edge>
    <edge id=":9040438131_0" function="internal">
        <lane id=":9040438131_0_0" index="0" allow="private emergency authority army vip passenger hov taxi bus coach delivery truck trailer motorcycle evehicle custom1 custom2" speed="29.06" length="8.21" shape="5633.09,-8287.01 5633.27,-8284.60 5633.78,-8282.98 5634.29,-8281.37 5634.47,-8278.96"/>
        <lane id=":9040438131_0_1" index="1" allow="private emergency authority army vip passenger hov taxi bus coach delivery truck trailer motorcycle evehicle custom1 custom2" speed="29.06" length="8.21" shape="5633.09,-8287.01 5632.77,-8284.62 5632.18,-8283.03 5631.59,-8281.44 5631.27,-8279.05"/>
        <lane id=":9040438131_0_2" index="2" allow="private emergency authority army vip passenger hov taxi bus coach delivery truck trailer motorcycle evehicle custom1 custom2" speed="29.06" length="8.21" shape="5629.89,-8287.09 5629.57,-8284.70 5628.98,-8283.12 5628.39,-8281.53 5628.07,-8279.14"/>
    </edge>
    <edge id=":90603076_0" function="internal">
        <lane id=":90603076_0_0" index="0" disallow="tram rail_urban rail rail_electric rail_fast ship" speed="24.59" length="8.38" shape="5982.26,-7253.07 5979.80,-7252.61 5978.26,-7251.54 5976.72,-7250.45 5974.26,-7249.96"/>
        <lane id=":90603076_0_1" index="1" disallow="tram rail_urban rail rail_electric rail_fast ship" speed="24.59" length="8.38" shape="5982.26,-7253.07 5974.28,-7253.16"/>
    </edge>
    <edge id=":90603076_2" function="internal">
        <lane id=":90603076_2_0" index="0" disallow="tram rail_urban rail rail_electric rail_fast ship" speed="24.59" length="8.02" shape="5974.29,-7256.36 5982.31,-7256.27"/>
    </edge>
    <edge id=":9428611874_0" function="internal">
        <lane id=":9428611874_0_0" index="0" allow="private emergency authority army vip passenger hov taxi bus coach delivery truck trailer motorcycle evehicle custom1 custom2" speed="29.06" length="8.40" shape="5763.09,-7424.77 5765.16,-7423.34 5767.02,-7423.00 5768.88,-7422.65 5770.95,-7421.23"/>
        <lane id=":9428611874_0_1" index="1" allow="private emergency authority army vip passenger hov taxi bus coach delivery truck trailer motorcycle evehicle custom1 custom2" speed="29.06" length="8.40" shape="5763.09,-7424.77 5768.65,-7419.01"/>
        <lane id=":9428611874_0_2" index="2" allow="private emergency authority army vip passenger hov taxi bus coach delivery truck trailer motorcycle evehicle custom1 custom2" speed="29.06" length="8.40" shape="5760.79,-7422.54 5766.34,-7416.79"/>
        <lane id=":9428611874_0_3" index="3" allow="private emergency authority army vip passenger hov taxi bus coach delivery truck trailer motorcycle evehicle custom1 custom2" speed="29.06" length="8.40" shape="5760.79,-7422.54 5762.14,-7420.43 5762.41,-7418.56 5762.69,-7416.69 5764.03,-7414.57"/>
    </edge>
    <edge id=":976942284-AddedOffRampNode_0" function="internal">
        <lane id=":976942284-AddedOffRampNode_0_0" index="0" allow="private emergency authority army vip passenger hov taxi bus coach delivery truck trailer motorcycle evehicle custom1 custom2" speed="29.06" length="8.20" shape="5627.77,-8012.08 5628.22,-8009.61 5629.29,-8008.05 5630.36,-8006.49 5630.81,-8004.02"/>
        <lane id=":976942284-AddedOffRampNode_0_1" index="1" allow="private emergency authority army vip passenger hov taxi bus coach delivery truck trailer motorcycle evehicle custom1 custom2" speed="29.06" length="8.20" shape="5627.77,-8012.08 5627.61,-8004.08"/>
        <lane id=":976942284-AddedOffRampNode_0_2" index="2" allow="private emergency authority army vip passenger hov taxi bus coach delivery truck trailer motorcycle evehicle custom1 custom2" speed="29.06" length="8.20" shape="5624.57,-8012.14 5624.41,-8004.14"/>
        <lane id=":976942284-AddedOffRampNode_0_3" index="3" allow="private emergency authority army vip passenger hov taxi bus coach delivery truck trailer motorcycle evehicle custom1 custom2" speed="29.06" length="8.20" shape="5621.37,-8012.20 5621.21,-8004.20"/>
    </edge>

    <edge id="-10518543#3" from="90603076" to="7357932352" name="Elverta Road" priority="11" type="highway.secondary">
        <lane id="-10518543#3_0" index="0" disallow="tram rail_urban rail rail_electric rail_fast ship" speed="24.59" length="45.72" shape="5982.31,-7256.27 6028.03,-7255.44">
            <param key="origId" value="10518543"/>
        </lane>
    </edge>
    <edge id="-226217755#1" from="2616874490" to="90603076" name="Elverta Road" priority="11" type="highway.secondary" shape="5799.10,-7255.70 5816.23,-7255.60 5835.51,-7255.50 5857.49,-7255.38 5906.50,-7255.12 5978.28,-7254.74">
        <lane id="-226217755#1_0" index="0" disallow="tram rail_urban rail rail_electric rail_fast ship" speed="24.59" length="164.78" shape="5809.52,-7257.24 5816.24,-7257.20 5835.52,-7257.10 5857.50,-7256.98 5906.51,-7256.72 5974.29,-7256.36">
            <param key="origId" value="226217755"/>
        </lane>
    </edge>
    <edge id="-278458252#1" from="2616874502" to="2616874501" name="Elverta Road" priority="10" type="highway.tertiary" shape="5245.13,-7258.61 5372.57,-7257.94 5394.98,-7257.83">
        <lane id="-278458252#1_0" index="0" disallow="tram rail_urban rail rail_electric rail_fast ship" speed="24.59" length="145.85" shape="5245.16,-7263.41 5372.59,-7262.74 5391.00,-7262.65">
            <param key="origId" value="278458252"/>
        </lane>
        <lane id="-278458252#1_1" index="1" disallow="tram rail_urban rail rail_electric rail_fast ship" speed="24.59" length="145.85" shape="5245.14,-7260.21 5372.58,-7259.54 5390.99,-7259.45">
            <param key="origId" value="278458252"/>
        </lane>
    </edge>
    <edge id="-278458253" from="2616874515" to="2828240845" name="Elverta Road" priority="11" type="highway.secondary" shape="5517.15,-7257.18 5556.02,-7256.97 5630.64,-7256.58 5671.60,-7256.36">
        <lane id="-278458253_0" index="0" disallow="tram rail_urban rail rail_electric rail_fast ship" speed="27.78" length="154.45" shape="5517.18,-7261.98 5556.05,-7261.77 5630.67,-7261.38 5671.63,-7261.16">
            <param key="origId" value="278458253 278458251 542552495"/>
        </lane>
        <lane id="-278458253_1" index="1" disallow="tram rail_urban rail rail_electric rail_fast ship" speed="27.78" length="154.45" shape="5517.16,-7258.78 5556.03,-7258.57 5630.65,-7258.18 5671.61,-7257.96">
            <param key="origId" value="278458253 278458251 542552495"/>
        </lane>
    </edge>
    <edge id="-278458254#1" from="2828240845" to="2616874490" name="Elverta Road" priority="11" type="highway.secondary" shape="5671.60,-7256.36 5771.48,-7255.84 5781.05,-7255.78 5799.10,-7255.70">
        <lane id="-278458254#1_0" index="0" disallow="tram rail_urban rail rail_electric rail_fast ship" speed="27.78" length="117.12" shape="5671.62,-7261.16 5771.51,-7260.64 5781.07,-7260.58 5788.75,-7260.55">
            <param key="origId" value="278458254"/>
        </lane>
        <lane id="-278458254#1_1" index="1" disallow="tram rail_urban rail rail_electric rail_fast ship" speed="27.78" length="117.12" shape="5671.61,-7257.96 5771.49,-7257.44 5781.06,-7257.38 5788.73,-7257.35">
            <param key="origId" value="278458254"/>
        </lane>
    </edge>
    <edge id="-39724101" from="90250822" to="90250710" name="West Elkhorn Boulevard" priority="12" type="highway.primary" shape="5700.44,-10452.13 5641.55,-10453.12 5615.95,-10453.44">
        <lane id="-39724101_0" index="0" disallow="tram rail_urban rail rail_electric rail_fast ship" speed="27.78" length="84.49" shape="5700.36,-10447.33 5641.48,-10448.32 5615.89,-10448.64">
            <param key="origId" value="39724101 542557963"/>
        </lane>
        <lane id="-39724101_1" index="1" disallow="tram rail_urban rail rail_electric rail_fast ship" speed="27.78" length="84.49" shape="5700.41,-10450.53 5641.53,-10451.52 5615.93,-10451.84">
            <param key="origId" value="39724101 542557963"/>
        </lane>
        <param key="ref" value="E14"/>
    </edge>
    <edge id="-39724102" from="90250768" to="90250822" name="West Elkhorn Boulevard" priority="12" type="highway.primary">
        <lane id="-39724102_0" index="0" disallow="tram rail_urban rail rail_electric rail_fast ship" speed="22.35" length="34.02" shape="5734.38,-10446.75 5700.36,-10447.33">
            <param key="origId" value="39724102"/>
        </lane>
        <lane id="-39724102_1" index="1" disallow="tram rail_urban rail rail_electric rail_fast ship" speed="22.35" length="34.02" shape="5734.43,-10449.95 5700.41,-10450.53">
            <param key="origId" value="39724102"/>
        </lane>
        <param key="ref" value="E14"/>
    </edge>
    <edge id="-540651098#1" from="2828240852" to="2616874515" name="Elverta Road" priority="11" type="highway.secondary" shape="5407.64,-7257.76 5420.70,-7257.69 5517.15,-7257.18">
        <lane id="-540651098#1_0" index="0" disallow="tram rail_urban rail rail_electric rail_fast ship" speed="27.78" length="109.51" shape="5407.67,-7262.56 5420.73,-7262.49 5517.18,-7261.98">
            <param key="origId" value="540651098"/>
        </lane>
        <lane id="-540651098#1_1" index="1" disallow="tram rail_urban rail rail_electric rail_fast ship" speed="27.78" length="109.51" shape="5407.65,-7259.36 5420.71,-7259.29 5517.16,-7258.78">
            <param key="origId" value="540651098"/>
        </lane>
    </edge>
    <edge id="-540651098#2" from="2616874501" to="2828240852" name="Elverta Road" priority="11" type="highway.secondary">
        <lane id="-540651098#2_0" index="0" disallow="tram rail_urban rail rail_electric rail_fast ship" speed="27.78" length="8.66" shape="5399.01,-7262.61 5407.67,-7262.56">
            <param key="origId" value="540651098"/>
        </lane>
        <lane id="-540651098#2_1" index="1" disallow="tram rail_urban rail rail_electric rail_fast ship" speed="27.78" length="8.66" shape="5398.99,-7259.41 5407.65,-7259.36">
            <param key="origId" value="540651098"/>
        </lane>
    </edge>
    <edge id="1022309890#0" from="9428611874" to="2616874490" priority="9" type="highway.motorway_link" spreadType="center" shape="5764.72,-7420.78 5768.81,-7416.53 5787.33,-7391.55 5800.44,-7352.76 5799.36,-7280.64 5799.24,-7272.43 5799.10,-7255.70">
        <lane id="1022309890#0_0" index="0" allow="private emergency authority army vip passenger hov taxi bus coach delivery truck trailer motorcycle evehicle custom1 custom2" speed="29.06" length="160.64" shape="5770.95,-7421.23 5772.48,-7419.64 5791.64,-7393.80 5805.25,-7353.51 5804.16,-7280.57 5804.04,-7272.37 5803.99,-7266.03">
            <param key="origId" value="1022309890"/>
        </lane>
        <lane id="1022309890#0_1" index="1" allow="private emergency authority army vip passenger hov taxi bus coach delivery truck trailer motorcycle evehicle custom1 custom2" speed="29.06" length="160.64" shape="5768.65,-7419.01 5770.03,-7417.57 5788.77,-7392.30 5802.04,-7353.01 5800.96,-7280.62 5800.84,-7272.41 5800.79,-7266.06">
            <param key="origId" value="1022309890"/>
        </lane>